Version 4
SHEET 1 1164 1872
WIRE -608 272 -736 272
WIRE -448 272 -512 272
WIRE -736 336 -736 272
WIRE -560 352 -560 320
WIRE -448 352 -560 352
WIRE -736 432 -736 416
WIRE -448 432 -736 432
WIRE -448 464 -448 432
FLAG -448 464 0
SYMBOL Ureg -560 288 R0
SYMATTR InstName X1
SYMATTR Prefix X
SYMATTR SpiceModel LM317/TI
SYMBOL voltage -736 320 R0
WINDOW 123 0 0 Left 0
WINDOW 39 0 0 Left 0
SYMATTR InstName V1
SYMATTR Value 30
SYMBOL Misc\\EuropeanResistor -464 256 R0
SYMATTR InstName R1
SYMATTR Value 127
SYMBOL Misc\\EuropeanResistor -464 336 R0
SYMATTR InstName R2
SYMATTR Value 1k
TEXT -336 232 Left 0 !.SUBCKT LM317/TI in adj out\n* PEI 08/98 p62\nJ1 in out 4 JN\nQ2 5 5 6 QPL .1\nQ3 5 8 9 QNL .2\nQ4 8 5 7 QPL .1\nQ5 81 8 out QNL .2\nQ6 out 81 10 QPL .2\nQ7 12 81 13 QNL .2\n*Q8 10 5 11 QPL .2\nQ8 10A 5 11 QPL .2\nQ9 14 12 10 QPL .2\nQ10 16 5 17 QPL .2\nQ11 16 14 15 QNL .2 OFF\nQ12 out 20 16 QPL .2\nQ13 in 19 20 QNL .2\nQ14 19 5 18 QPL .2\nQ15 out 21 19 QPL .2\nQ16 21 22 16 QPL .2\nQ17 21 out 24 QNL .2\nQ18 22 22 16 QPL .2\nQ19 22 out 241 QNL .2\nQ20 out 25 16 QPL .2\nQ21 25 26 out QNL .2\nQ22A 35 35 in QPL .2\nQ22B 16 35 in QPL .2\nQ23 35 16 30 QNL .2\nQ24A 27 40 29 QNL .2\nQ24B 27 40 28 QNL .2\nQ25 in 31 41 QNL 5\nQ26 in 41 32 QNL 50\nD1 out 4 DZ\nD2 33 in DZ\nD3 29 34 DZ\nR1 in 6 310\nR2 in 7 310\nR3 in 11 190\nR4 in 17 82\nR5 in 18 5.6K\nR6 4 8 100K\nR7 8 81 130\n*R8 10 12 12.4K\nR8 10A 12 12.4K\nR9 9 out 180\nR10 13 out 4.1K\nR11 14 out 5.8K\nR12 15 out 72\nR13 20 out 5.1K\nR14 adj 24 12K\nR15 24 241 2.4K\nR16 16 25 6.7K\nR17 16 40 12K\nR18 30 41 130\nR19 16 31 370\nR20 26 27 13K\nR21 27 40 400\nR22 out 41 160\nR23 33 34 18K\nR24 28 29 160\nR25 28 32 3\nR26 32 out .1\nC1 21 out 30PF\nC2 21 adj 30PF\nC3 25 26 5PF\nCBS1 5 out 2PF\nCBS2 35 out 1PF\nCBS3 22 out 1PF\n.MODEL JN NJF (BETA=1E-4 VTO=-7)\n.MODEL DZ D(BV=6.3)\n.MODEL QNL NPN (EG=1.22 BF=80 RB=100 CCS=1.5PF TF=.3NS TR=6NS\n+ CJE=2PF CJC=1PF VAF=100 IS=1E-22 NF=1.2)\n.MODEL QPL PNP (BF=40 RB=20 TF=.6NS TR=10NS CJE=1.5PF CJC=1PF VAF=50\n+ IS=1E-22 NF=1.2)\n.ENDS LM317/TI
TEXT -770 1856 Left 0 !.tran 10
